optran: no such command available in ngspice

Compatibility modes selected: hs a

Warning: m=xx on .subckt line will override multiplier m hierarchy!

Warning: redefinition of .subckt sky130_fd_pr__res_generic_po, ignored
Warning: redefinition of .subckt sky130_fd_pr__res_generic_nd, ignored
Warning: redefinition of .subckt sky130_fd_pr__res_generic_pd, ignored
Warning: redefinition of .subckt sky130_fd_pr__pnp_05v5_w0p68l0p68, ignored
Warning: redefinition of .subckt sky130_fd_pr__model__parasitic__res_po, ignored
Warning: redefinition of .subckt sky130_fd_pr__res_xhigh_po, ignored
Warning: redefinition of .subckt sky130_fd_pr__res_high_po, ignored
Warning: redefinition of .subckt sky130_fd_pr__res_xhigh_po_0p35, ignored
Warning: redefinition of .subckt sky130_fd_pr__res_xhigh_po_0p69, ignored
Warning: redefinition of .subckt sky130_fd_pr__res_xhigh_po_1p41, ignored
Warning: redefinition of .subckt sky130_fd_pr__res_xhigh_po_2p85, ignored
Warning: redefinition of .subckt sky130_fd_pr__res_xhigh_po_5p73, ignored
Warning: redefinition of .subckt sky130_fd_pr__res_xhigh_po__base, ignored
Warning: redefinition of .subckt sky130_fd_pr__res_high_po_0p35, ignored
Warning: redefinition of .subckt sky130_fd_pr__res_high_po_0p69, ignored
Warning: redefinition of .subckt sky130_fd_pr__res_high_po_1p41, ignored
Warning: redefinition of .subckt sky130_fd_pr__res_high_po_2p85, ignored
Warning: redefinition of .subckt sky130_fd_pr__res_high_po_5p73, ignored

Circuit: * /home/aparveen111/esim-workspace/6t_ram/6t_ram.cir

option SCALE: Scale is set to 1e-06 for instance and model parameters
Doing analysis at TEMP = 27.000000 and TNOM = 27.000000

Warning: include: has no value, DC 0 assumed
Warning: v4: no DC value, transient time 0 value used
Warning: v2: no DC value, transient time 0 value used
Warning: v3: no DC value, transient time 0 value used

No. of Data Rows : 595
binary raw file "/home/aparveen111/eSim-Workspace/6T_RAM/6T_RAM.raw"
Doing analysis at TEMP = 27.000000 and TNOM = 27.000000

Warning: include: has no value, DC 0 assumed
Warning: v4: no DC value, transient time 0 value used
Warning: v2: no DC value, transient time 0 value used
Warning: v3: no DC value, transient time 0 value used
No. of Data Columns : 31  

No. of Data Rows : 595

Total analysis time (seconds) = 0.078576

Total CPU time (seconds) = 11.497 

Total DRAM available = 257855.305 MB.
DRAM currently available = 227450.531 MB.
Maximum ngspice program size =  397.688 MB.
Current ngspice program size =  331.344 MB.

Shared ngspice pages =    9.449 MB.
Text (code) pages =    6.285 MB.
Stack = 0 bytes.
Library pages =  325.340 MB.

