optran: no such command available in ngspice

Compatibility modes selected: hs a


Warning: Nesting of subcircuits with parameters is only marginally supported!


Warning: Nesting of subcircuits with parameters is only marginally supported!


Warning: Nesting of subcircuits with parameters is only marginally supported!


Warning: Nesting of subcircuits with parameters is only marginally supported!


Warning: Nesting of subcircuits with parameters is only marginally supported!


Warning: Nesting of subcircuits with parameters is only marginally supported!

warning, can't find model sky130_fd_pr__diode_pw2nd_05v5
warning, can't find model sky130_fd_pr__diode_pw2nd_05v5
warning, can't find model sky130_fd_pr__model__parasitic__diode_ps2nw
warning, can't find model sky130_fd_pr__model__parasitic__diode_ps2nw

Circuit: * /home/aparveen111/esim-workspace/8_bit_sram_schematic/8_bit_sram_schematic.cir

Error: unknown subckt: x4.x1.xsc2 x4.x1.net-_sc2-pad1_ x4.net-_u4-pad4_ x4.x1.net-_sc2-pad3_ x4.x1.net-_sc2-pad3_ sky130_fd_pr__pfet_01v8_lvt
    Simulation interrupted due to error!

Error: there aren't any circuits loaded.
