
No compatibility mode selected!


Circuit: * /home/aparveen111/esim-workspace/decoder/decoder.cir

Error on line 18 :
  a1 [net-_u1-pad1_ net-_u1-pad2_ net-_u1-pad3_ ] [net-_u1-pad4_ ] [net-_u1-pad5_ net-_u1-pad6_ net-_u1-pad7_ net-_u1-pad8_ net-_u1-pad9_ net-_u1-pad10_ net-_u1-pad11_ net-_u1-pad12_ ] u1
 MIF-ERROR - unable to find definition of model u1
    Simulation interrupted due to error!

Error: circuit not parsed.

Note: no resource usage information for 'time',
	or no active circuit available

Total CPU time (seconds) = 0.008 

Total DRAM available = 257855.305 MB.
DRAM currently available = 48410.723 MB.
Maximum ngspice program size =   73.180 MB.
Current ngspice program size =   10.117 MB.

Shared ngspice pages =    8.879 MB.
Text (code) pages =    6.285 MB.
Stack = 0 bytes.
Library pages =    1.879 MB.

